-------------------------------------------------------
          Amber 18 PMEMD                              2018
          -------------------------------------------------------

  [-O]verwriting output

File Assignments:

 Here is the input file:

 Typical Production MD NVE with
 GOOD energy conservation.
 &cntrl
   ntx=5, irest=1,
   ntc=2, ntf=2, tol=0.000001,
   nstlim=8000,
   ntpr=1000, ntwx=1000,
   ntwr=8000,
   dt=0.002, cut=8.,
   ntt=0, ntb=1, ntp=0,
   ioutfm=1,
 /
 &ewald
  dsum_tol=0.000001,
 /

Note: ig = -1. Setting random seed to   326755 based on wallclock time in
      microseconds.

--------------------------------------------------------------------------------
   1.  RESOURCE   USE:
--------------------------------------------------------------------------------

 getting new box info from bottom of inpcrd
 NATOM  =  408609 NTYPES =       8 NBONH =  360981 MBONA  =   51840
 NTHETH =   99576 MTHETA =   77652 NPHIH =  181764 MPHIA  =  155196
 NHPARM =       0 NPARM  =       0 NNB   =  976704 NRES   =  110283
 NBONA  =   51840 NTHETA =   77652 NPHIA =  155196 NUMBND =       8
 NUMANG =      14 NPTRA  =      18 NATYP =       8 NPHB   =       1
 IFBOX  =       1 NMXRS  =      22 IFCAP =       0 NEXTRA =       0
 NCOPY  =       0

     BOX TYPE: RECTILINEAR

--------------------------------------------------------------------------------
   2.  CONTROL  DATA  FOR  THE  RUN
--------------------------------------------------------------------------------

General flags:
     imin    =       0, nmropt  =       0

Nature and format of input:
     ntx     =       5, irest   =       1, ntrx    =       1

Nature and format of output:
     ntxo    =       2, ntpr    =    1000, ntrx    =       1, ntwr    =    8000
     iwrap   =       0, ntwx    =    1000, ntwv    =       0, ntwe    =       0
     ioutfm  =       1, ntwprt  =       0, idecomp =       0, rbornstat=      0

Potential function:
     ntf     =       2, ntb     =       1, igb     =       0, nsnb    =      25
     ipol    =       0, gbsa    =       0, iesp    =       0
     dielc   =   1.00000, cut     =   8.00000, intdiel =   1.00000

Frozen or restrained atoms:
     ibelly  =       0, ntr     =       0

Molecular dynamics:
     nstlim  =      8000, nscm    =      1000, nrespa  =         1
     t       =   0.00000, dt      =   0.00200, vlimit  =  -1.00000

SHAKE:
     ntc     =       2, jfastw  =       0
     tol     =   0.00000

Ewald parameters:
     verbose =       0, ew_type =       0, nbflag  =       1, use_pme =       1
     vdwmeth =       1, eedmeth =       1, netfrc  =       1
     Box X =  259.230   Box Y =  124.558   Box Z =  123.502
     Alpha =   90.000   Beta  =   90.000   Gamma =   90.000
     NFFT1 =  256       NFFT2 =  128       NFFT3 =  128
     Cutoff=    8.000   Tol   =0.100E-05
     Ewald Coefficient =  0.39467
     Interpolation order =    4

--------------------------------------------------------------------------------
   3.  ATOMIC COORDINATES AND VELOCITIES
--------------------------------------------------------------------------------

 begin time read from input coords =    20.020 ps

 Number of triangulated 3-point waters found:   105855

     Sum of charges from parm topology file =   0.00000000
     Forcing neutrality...

--------------------------------------------------------------------------------
   4.  RESULTS
 NSTEP =     1000   TIME(PS) =      22.020  TEMP(K) =   299.69  PRESS =     0.0
 Etot   =   -443239.4479  EKtot   =    257524.8438  EPtot      =   -700764.2917
 BOND   =     20364.9787  ANGLE   =     54422.9497  DIHED      =     23534.0711
 1-4 NB =     21745.8515  1-4 EEL =    742214.3504  VDWAALS    =     96571.8455
 EELEC  =  -1659618.3385  EHBOND  =         0.0000  RESTRAINT  =         0.0000
 ------------------------------------------------------------------------------

      A V E R A G E S   O V E R       8 S T E P S

 NSTEP =     8000   TIME(PS) =      36.020  TEMP(K) =   299.74  PRESS =     0.0
 Etot   =   -443241.4294  EKtot   =    257566.2441  EPtot      =   -700807.6735
 BOND   =     20349.3987  ANGLE   =     53897.3301  DIHED      =     23618.4453
 1-4 NB =     21758.7222  1-4 EEL =    742151.7479  VDWAALS    =     96724.6659
 EELEC  =  -1659307.9837  EHBOND  =         0.0000  RESTRAINT  =         0.0000
 ------------------------------------------------------------------------------

      R M S  F L U C T U A T I O N S

 NSTEP =     8000   TIME(PS) =      36.020  TEMP(K) =     0.31  PRESS =     0.0
 Etot   =         4.7373  EKtot   =       267.2366  EPtot      =       265.4133
 BOND   =       172.5321  ANGLE   =       278.6001  DIHED      =        45.1605
 1-4 NB =        39.7732  1-4 EEL =       111.1816  VDWAALS    =       298.3576
 EELEC  =       490.2040  EHBOND  =         0.0000  RESTRAINT  =         0.0000
 ------------------------------------------------------------------------------
